<?xml version="1.0" encoding="UTF-8"?>
<!-- generated on 2020-03-30 23:04:24.882785 by $Id$
  options: -n colonia.net.xml -r colonia.rou.xml -e 70
-->
<routes xmlns:xsi="http://www.w3.org/2001/XMLSchema-instance" xsi:noNamespaceSchemaLocation="http://sumo.dlr.de/xsd/routes_file.xsd">
    <trip id="0" depart="0.00" from="23283470#2" to="23840888#1"/>
    <trip id="1" depart="1.00" from="290365598#0" to="-28675493#2"/>
    <trip id="2" depart="2.00" from="28691861" to="627838794"/>
    <trip id="3" depart="3.00" from="-8716807#6" to="23840712#1"/>
    <trip id="4" depart="4.00" from="23840712#1" to="23648008#0"/>
    <trip id="5" depart="5.00" from="-28675493#0" to="23840887#1"/>
    <trip id="6" depart="6.00" from="297047308" to="627838794"/>
    <trip id="7" depart="7.00" from="8716807#3" to="8716807#1"/>
    <trip id="8" depart="8.00" from="22959550#1" to="-8716807#3"/>
    <trip id="9" depart="9.00" from="8716807#0" to="297047308"/>
    <trip id="10" depart="10.00" from="297047310#0" to="290365598#0"/>
    <trip id="11" depart="11.00" from="22959550#2" to="22959552#2"/>
    <trip id="12" depart="12.00" from="23283470#0" to="22959550#0"/>
    <trip id="13" depart="13.00" from="-28691861" to="-8716807#2"/>
    <trip id="14" depart="14.00" from="23840887#4" to="-28691861"/>
    <trip id="15" depart="15.00" from="23647126" to="8716807#4"/>
    <trip id="16" depart="16.00" from="22959550#3" to="-297047307"/>
    <trip id="17" depart="17.00" from="-28675493#2" to="28691861"/>
    <trip id="18" depart="18.00" from="290365598#1" to="-28675493#1"/>
    <trip id="19" depart="19.00" from="-297047310#1" to="-297047307"/>
    <trip id="20" depart="20.00" from="8716807#6" to="-8716807#5"/>
    <trip id="21" depart="21.00" from="8716807#6" to="-8716807#5"/>
    <trip id="22" depart="22.00" from="-23648008#2" to="-297047307"/>
    <trip id="23" depart="23.00" from="-8716807#2" to="-297047308"/>
    <trip id="24" depart="24.00" from="-8716807#3" to="8716807#6"/>
    <trip id="25" depart="25.00" from="-23840888#1" to="28675493#1"/>
    <trip id="26" depart="26.00" from="22959550#1" to="28675493#2"/>
    <trip id="27" depart="27.00" from="23840887#4" to="-8716807#0"/>
    <trip id="28" depart="28.00" from="-8716807#4" to="8716807#2"/>
    <trip id="29" depart="29.00" from="22959550#0" to="297047308"/>
    <trip id="30" depart="30.00" from="297047310#2" to="22959550#0"/>
    <trip id="31" depart="31.00" from="8716807#4" to="-8716807#4"/>
    <trip id="32" depart="32.00" from="22959552#1" to="22959550#3"/>
    <trip id="33" depart="33.00" from="-8716807#2" to="290365598#0"/>
    <trip id="34" depart="34.00" from="-23840712#4" to="-8716807#2"/>
    <trip id="35" depart="35.00" from="8716807#2" to="297047310#1"/>
    <trip id="36" depart="36.00" from="22959550#3" to="23840888#1"/>
    <trip id="37" depart="37.00" from="-8716807#4" to="-23840888#0"/>
    <trip id="38" depart="38.00" from="-8716807#5" to="23840887#2"/>
    <trip id="39" depart="39.00" from="-297047308" to="22959552#1"/>
    <trip id="40" depart="40.00" from="22959550#0" to="-8716807#5"/>
    <trip id="41" depart="41.00" from="-23840712#1" to="-23840888#1"/>
    <trip id="42" depart="42.00" from="28691861" to="-8716807#4"/>
    <trip id="43" depart="43.00" from="22959550#2" to="-297047308"/>
    <trip id="44" depart="44.00" from="-8716807#5" to="-8716807#6"/>
    <trip id="45" depart="45.00" from="8716807#4" to="-23840712#2"/>
    <trip id="46" depart="46.00" from="-23840712#2" to="-297047310#1"/>
    <trip id="47" depart="47.00" from="23840712#1" to="-8716807#0"/>
    <trip id="48" depart="48.00" from="23840712#0" to="-8716807#0"/>
    <trip id="49" depart="49.00" from="22959552#0" to="28675493#0"/>
    <trip id="50" depart="50.00" from="-23840712#4" to="-297047307"/>
    <trip id="51" depart="51.00" from="-28691861" to="28691861"/>
    <trip id="52" depart="52.00" from="28691861" to="-23840712#0"/>
    <trip id="53" depart="53.00" from="-297047308" to="627838794"/>
    <trip id="54" depart="54.00" from="23840712#0" to="-290365598#0"/>
    <trip id="55" depart="55.00" from="-297047310#1" to="23840887#0"/>
    <trip id="56" depart="56.00" from="-23840712#2" to="28691861"/>
    <trip id="57" depart="57.00" from="-8716807#2" to="-8716807#0"/>
    <trip id="58" depart="58.00" from="-23840888#1" to="22959550#0"/>
    <trip id="59" depart="59.00" from="8716807#5" to="22959550#3"/>
    <trip id="60" depart="60.00" from="-23840935" to="-297047308"/>
    <trip id="61" depart="61.00" from="22959552#0" to="23840887#1"/>
    <trip id="62" depart="62.00" from="8716807#6" to="23647126"/>
    <trip id="63" depart="63.00" from="-28691861" to="28675493#0"/>
    <trip id="64" depart="64.00" from="23647118" to="297047308"/>
    <trip id="65" depart="65.00" from="-297047307" to="22959550#2"/>
    <trip id="66" depart="66.00" from="-297047310#1" to="-23840712#1"/>
    <trip id="67" depart="67.00" from="-23840712#1" to="297047310#1"/>
    <trip id="68" depart="68.00" from="-8716807#6" to="23283470#0"/>
    <trip id="69" depart="69.00" from="23840887#0" to="-297047308"/>
</routes>
