<?xml version="1.0" encoding="UTF-8"?>

<!-- generated on Mon Mar 30 15:08:56 2020 by SUMO duarouter Version 0.32.0
<?xml version="1.0" encoding="UTF-8"?>

<configuration xmlns:xsi="http://www.w3.org/2001/XMLSchema-instance" xsi:noNamespaceSchemaLocation="http://sumo.dlr.de/xsd/duarouterConfiguration.xsd">

    <input>
        <net-file value="colonia.net.xml"/>
        <route-files value="trips.trips.xml"/>
    </input>

    <output>
        <output-file value="colonia.rou.xml"/>
        <alternatives-output value="colonia.rou.alt.xml"/>
    </output>

    <processing>
        <ignore-errors value="true"/>
    </processing>

    <time>
        <begin value="0"/>
        <end value="30.0"/>
    </time>

    <report>
        <no-warnings value="true"/>
        <no-step-log value="true"/>
    </report>

</configuration>
-->

<routes xmlns:xsi="http://www.w3.org/2001/XMLSchema-instance" xsi:noNamespaceSchemaLocation="http://sumo.dlr.de/xsd/routes_file.xsd">
    <vehicle id="0" depart="0.00">
        <route edges="23647126 -8716807#5 22959552#1 22959552#2 22959550#3 -23840712#4 23840712#4"/>
    </vehicle>
    <vehicle id="1" depart="1.00">
        <route edges="8716807#2 8716807#3 8716807#4 22959552#1 22959552#2 22959550#3 -23840712#4 -23840712#3 -23840712#2 -23840712#1 -23840712#0"/>
    </vehicle>
    <vehicle id="2" depart="2.00">
        <route edges="22959550#0 22959550#1 22959550#2 22959550#3 -23840712#4 -23840712#3 -23840712#2 -23840712#1 290365598#0 290365598#1"/>
    </vehicle>
    <vehicle id="3" depart="3.00">
        <route edges="-23840712#4 23840712#4 23283470#0 23283470#1 23283470#2 8716807#1 8716807#2 8716807#3"/>
    </vehicle>
    <vehicle id="4" depart="4.00">
        <route edges="23283470#2 8716807#1 8716807#2 8716807#3 8716807#4 22959552#1 22959552#2 22959550#3"/>
    </vehicle>
    <vehicle id="5" depart="5.00">
        <route edges="23647118 8716807#6 -297047308 297047308"/>
    </vehicle>
    <vehicle id="6" depart="6.00">
        <route edges="-23840712#3 23840712#3 23840712#4 23283470#0 23283470#1 23283470#2 8716807#1 8716807#2"/>
    </vehicle>
    <vehicle id="7" depart="7.00">
        <route edges="23840712#4 -23840712#4 -23840712#3 -23840712#2 -23840712#1 290365598#0 290365598#1"/>
    </vehicle>
    <vehicle id="8" depart="8.00">
        <route edges="8716807#2 8716807#3 8716807#4 22959552#1 22959552#2 22959550#3 -23840712#4 23840887#0 23840887#1 23840887#2 23840935"/>
    </vehicle>
    <vehicle id="9" depart="9.00">
        <route edges="8716807#5 8716807#6 -297047308 -28675493#2 28675493#2"/>
    </vehicle>
    <vehicle id="10" depart="10.00">
        <route edges="-23840712#3 23840712#3 23840887#0 23840887#1 23840887#2 23840887#4 297047310#1 297047310#2 -297047307"/>
    </vehicle>
    <vehicle id="11" depart="11.00">
        <route edges="23283470#2 8716807#1 8716807#2 8716807#3 8716807#4 8716807#5 8716807#6 -297047308 -28675493#2 -28675493#1 -28675493#0 -297047307 22959550#0"/>
    </vehicle>
    <vehicle id="12" depart="12.00">
        <route edges="-28675493#2 28675493#2 297047308 -8716807#6 -8716807#5 -8716807#4 -8716807#3 8716807#3"/>
    </vehicle>
    <vehicle id="13" depart="13.00">
        <route edges="23283470#2 23283470#3"/>
    </vehicle>
    <vehicle id="14" depart="14.00">
        <route edges="297047308 -297047308 -28675493#2 -28675493#1 -28675493#0 -297047307 22959550#0 22959550#1 22959550#2 22959550#3 -23840712#4 23840887#0 23840887#1 23840887#2 23840887#4"/>
    </vehicle>
    <vehicle id="15" depart="15.00">
        <route edges="23840712#2 23840712#3 23840887#0 23840887#1 23840887#2 23840887#4 297047310#1 22959550#0"/>
    </vehicle>
    <vehicle id="16" depart="16.00">
        <route edges="28691861 22959552#2 22959550#3 -23840712#4 -23840712#3 -23840712#2 -23840712#1 290365598#0 290365598#1 23840888#1"/>
    </vehicle>
    <vehicle id="17" depart="17.00">
        <route edges="-28675493#0 -297047307 22959550#0 22959550#1 22959550#2 22959550#3 -23840712#4 -23840712#3 23840712#3"/>
    </vehicle>
    <vehicle id="18" depart="18.00">
        <route edges="-23840712#2 23840712#2 23840712#3 23840887#0 23840887#1 23840887#2 23840887#4 297047310#1 297047310#2 28675493#0 28675493#1 28675493#2 297047308 -297047308"/>
    </vehicle>
    <vehicle id="19" depart="19.00">
        <route edges="28675493#0 -28675493#0 -297047307 22959550#0 22959550#1 22959550#2 22959550#3 627838794"/>
    </vehicle>
    <vehicle id="20" depart="20.00">
        <route edges="8716807#6 -8716807#6 -8716807#5 -8716807#4 -8716807#3"/>
    </vehicle>
    <vehicle id="21" depart="21.00">
        <route edges="23283470#0 23283470#1 23283470#2 8716807#1 8716807#2 8716807#3 8716807#4 8716807#5 8716807#6 -297047308 -28675493#2 -28675493#1 28675493#1"/>
    </vehicle>
    <vehicle id="22" depart="22.00">
        <route edges="23840888#0 23840888#1 23840887#2 23840935"/>
    </vehicle>
    <vehicle id="23" depart="23.00">
        <route edges="-8716807#5 8716807#5 8716807#6 -297047308 -28675493#2 28675493#2"/>
    </vehicle>
    <vehicle id="24" depart="24.00">
        <route edges="23840888#1 -23840888#1 -290365598#1 -290365598#0 23840712#1 23840712#2 23840712#3 23840712#4 23283470#0 23283470#1 28691861"/>
    </vehicle>
    <vehicle id="25" depart="25.00">
        <route edges="23840887#2 23840887#4 297047310#1 22959550#0 22959550#1 22959550#2 22959550#3 -23840712#4 23840887#0 23840887#1"/>
    </vehicle>
    <vehicle id="26" depart="26.00">
        <route edges="23283470#1 28691861 22959552#2 22959550#3 -23840712#4 23840712#4"/>
    </vehicle>
    <vehicle id="27" depart="27.00">
        <route edges="23840712#1 -23840712#1 290365598#0 290365598#1 -290365598#1"/>
    </vehicle>
    <vehicle id="28" depart="28.00">
        <route edges="-28675494 -8716807#6 -8716807#5 -8716807#4"/>
    </vehicle>
    <vehicle id="29" depart="29.00">
        <route edges="-28675493#2 28675493#2"/>
    </vehicle>
</routes>
