<?xml version="1.0" encoding="UTF-8"?>

<!-- generated on Sat Mar 21 02:01:20 2020 by SUMO netconvert Version 0.32.0
<?xml version="1.0" encoding="UTF-8"?>

<configuration xmlns:xsi="http://www.w3.org/2001/XMLSchema-instance" xsi:noNamespaceSchemaLocation="http://sumo.dlr.de/xsd/netconvertConfiguration.xsd">

    <input>
        <osm-files value="map.osm"/>
    </input>

    <output>
        <output-file value="colonia.net.xml"/>
    </output>

    <projection>
        <proj.utm value="true"/>
    </projection>

    <tls_building>
        <tls.discard-simple value="true"/>
        <tls.join value="true"/>
        <tls.guess-signals value="true"/>
    </tls_building>

    <ramp_guessing>
        <ramps.guess value="true"/>
    </ramp_guessing>

    <processing>
        <geometry.remove value="true"/>
        <roundabouts.guess value="true"/>
        <junctions.join value="true"/>
    </processing>

</configuration>
-->

<net version="0.27" xmlns:xsi="http://www.w3.org/2001/XMLSchema-instance" xsi:noNamespaceSchemaLocation="http://sumo.dlr.de/xsd/net_file.xsd">

    <location netOffset="-356259.65,-5647829.55" convBoundary="0.00,0.00,735.66,624.72" origBoundary="6.952807,50.964169,6.963368,50.969772" projParameter="+proj=utm +zone=32 +ellps=WGS84 +datum=WGS84 +units=m +no_defs"/>

    <type id="highway.bridleway" priority="1" numLanes="1" speed="150.78" allow="pedestrian" oneway="1" width="2.00"/>
    <type id="highway.bus_guideway" priority="1" numLanes="1" speed="150.33" allow="bus" oneway="1"/>
    <type id="highway.cycleway" priority="1" numLanes="1" speed="150.56" allow="bicycle" oneway="0" width="1.00"/>
    <type id="highway.footway" priority="1" numLanes="1" speed="150.78" allow="pedestrian" oneway="1" width="2.00"/>
    <type id="highway.ford" priority="1" numLanes="1" speed="150.78" allow="army" oneway="0"/>
    <type id="highway.living_street" priority="3" numLanes="1" speed="150.78" disallow="tram rail_urban rail rail_electric ship" oneway="0"/>
    <type id="highway.motorway" priority="13" numLanes="2" speed="150.44" allow="private emergency authority army vip passenger hov taxi bus coach delivery truck trailer motorcycle evehicle custom1 custom2" oneway="1"/>
    <type id="highway.motorway_link" priority="12" numLanes="1" speed="150.22" allow="private emergency authority army vip passenger hov taxi bus coach delivery truck trailer motorcycle evehicle custom1 custom2" oneway="1"/>
    <type id="highway.path" priority="1" numLanes="1" speed="150.78" allow="bicycle pedestrian" oneway="1" width="2.00"/>
    <type id="highway.pedestrian" priority="1" numLanes="1" speed="150.78" allow="pedestrian" oneway="1" width="2.00"/>
    <type id="highway.primary" priority="9" numLanes="2" speed="150.78" disallow="tram rail_urban rail rail_electric ship" oneway="0"/>
    <type id="highway.primary_link" priority="8" numLanes="1" speed="150.22" disallow="tram rail_urban rail rail_electric ship" oneway="0"/>
    <type id="highway.raceway" priority="14" numLanes="2" speed="150.33" allow="vip" oneway="0"/>
    <type id="highway.residential" priority="4" numLanes="1" speed="150.89" disallow="tram rail_urban rail rail_electric ship" oneway="0"/>
    <type id="highway.secondary" priority="7" numLanes="2" speed="150.78" disallow="tram rail_urban rail rail_electric ship" oneway="0"/>
    <type id="highway.secondary_link" priority="6" numLanes="1" speed="150.22" disallow="tram rail_urban rail rail_electric ship" oneway="0"/>
    <type id="highway.service" priority="2" numLanes="1" speed="150.56" allow="delivery bicycle pedestrian" oneway="0"/>
    <type id="highway.services" priority="1" numLanes="1" speed="150.33" disallow="tram rail_urban rail rail_electric ship" oneway="0"/>
    <type id="highway.stairs" priority="1" numLanes="1" speed="150.39" allow="pedestrian" oneway="1" width="2.00"/>
    <type id="highway.step" priority="1" numLanes="1" speed="150.39" allow="pedestrian" oneway="1" width="2.00"/>
    <type id="highway.steps" priority="1" numLanes="1" speed="150.39" allow="pedestrian" oneway="1" width="2.00"/>
    <type id="highway.tertiary" priority="6" numLanes="1" speed="150.22" disallow="tram rail_urban rail rail_electric ship" oneway="0"/>
    <type id="highway.tertiary_link" priority="5" numLanes="1" speed="150.22" disallow="tram rail_urban rail rail_electric ship" oneway="0"/>
    <type id="highway.track" priority="1" numLanes="1" speed="150.56" disallow="tram rail_urban rail rail_electric ship" oneway="0"/>
    <type id="highway.trunk" priority="11" numLanes="2" speed="150.78" disallow="tram rail_urban rail rail_electric bicycle pedestrian ship" oneway="0"/>
    <type id="highway.trunk_link" priority="10" numLanes="1" speed="150.22" disallow="tram rail_urban rail rail_electric bicycle pedestrian ship" oneway="0"/>
    <type id="highway.unclassified" priority="5" numLanes="1" speed="150.89" disallow="tram rail_urban rail rail_electric ship" oneway="0"/>
    <type id="highway.unsurfaced" priority="1" numLanes="1" speed="150.33" disallow="tram rail_urban rail rail_electric ship" oneway="0"/>
    <type id="railway.light_rail" priority="15" numLanes="1" speed="150.78" allow="rail_urban" oneway="1"/>
    <type id="railway.preserved" priority="15" numLanes="1" speed="150.78" allow="rail" oneway="1"/>
    <type id="railway.rail" priority="15" numLanes="1" speed="150.33" allow="rail rail_electric" oneway="1"/>
    <type id="railway.subway" priority="15" numLanes="1" speed="150.78" allow="rail_urban" oneway="1"/>
    <type id="railway.tram" priority="15" numLanes="1" speed="150.89" allow="tram" oneway="1"/>

	

    <edge id=":1679948681_0" function="internal">
        <lane id=":1679948681_0_0" index="0" disallow="tram rail_urban rail rail_electric ship" speed="150.89" length="3.02" shape="412.88,272.19 412.64,269.17"/>
    </edge>
    <edge id=":1679948681_1" function="internal">
        <lane id=":1679948681_1_0" index="0" disallow="tram rail_urban rail rail_electric ship" speed="150.89" length="2.41" shape="412.88,272.19 413.59,270.88 414.38,270.40"/>
    </edge>
    <edge id=":1679948681_5" function="internal">
        <lane id=":1679948681_5_0" index="0" speed="150.89" length="2.41" shape="414.38,270.40 415.24,270.74 416.17,271.90"/>
    </edge>
    <edge id=":1679948681_2" function="internal">
        <lane id=":1679948681_2_0" index="0" disallow="tram rail_urban rail rail_electric ship" speed="150.89" length="3.70" shape="415.93,268.93 419.46,271.60"/>
        <lane id=":1679948681_2_1" index="1" disallow="tram rail_urban rail rail_electric ship" speed="150.89" length="3.70" shape="415.93,268.93 416.17,271.90"/>
    </edge>
    <edge id=":1679948681_4" function="internal">
        <lane id=":1679948681_4_0" index="0" disallow="tram rail_urban rail rail_electric ship" speed="150.89" length="2.41" shape="415.93,268.93 415.20,270.22 414.40,270.70"/>
    </edge>
    <edge id=":1679948681_6" function="internal">
        <lane id=":1679948681_6_0" index="0" speed="150.89" length="2.41" shape="414.40,270.70 413.55,270.35 412.64,269.17"/>
    </edge>
    <edge id=":247380547_0" function="internal">
        <lane id=":247380547_0_0" index="0" disallow="tram rail_urban rail rail_electric ship" speed="150.89" length="6.26" shape="286.81,439.59 280.55,439.69"/>
    </edge>
    <edge id=":247380547_1" function="internal">
        <lane id=":247380547_1_0" index="0" disallow="tram rail_urban rail rail_electric ship" speed="150.89" length="5.11" shape="283.51,436.45 283.44,437.87 282.92,438.88 281.96,439.49 280.55,439.69"/>
    </edge>
    <edge id=":247380551_0" function="internal">
        <lane id=":247380551_0_0" index="0" disallow="tram rail_urban rail rail_electric ship" speed="150.89" length="5.05" shape="267.21,250.07 265.89,250.44 265.00,251.15 264.53,252.20 264.49,253.59"/>
    </edge>
    <edge id=":247380551_1" function="internal">
        <lane id=":247380551_1_0" index="0" disallow="tram rail_urban rail rail_electric ship" speed="150.89" length="6.22" shape="267.21,250.07 261.04,250.89"/>
    </edge>
    <edge id=":247380551_2" function="internal">
        <lane id=":247380551_2_0" index="0" disallow="tram rail_urban rail rail_electric ship" speed="150.89" length="2.41" shape="267.21,250.07 265.87,249.41 265.36,248.65"/>
    </edge>
    <edge id=":247380551_9" function="internal">
        <lane id=":247380551_9_0" index="0" speed="150.89" length="2.41" shape="265.36,248.65 265.66,247.77 266.78,246.80"/>
    </edge>
    <edge id=":247380551_3" function="internal">
        <lane id=":247380551_3_0" index="0" disallow="tram rail_urban rail rail_electric ship" speed="150.89" length="5.01" shape="263.28,244.11 263.67,245.43 264.38,246.32 265.42,246.78 266.78,246.80"/>
    </edge>
    <edge id=":247380551_4" function="internal">
        <lane id=":247380551_4_0" index="0" disallow="tram rail_urban rail rail_electric ship" speed="150.89" length="9.56" shape="263.28,244.11 264.49,253.59"/>
    </edge>
    <edge id=":247380551_5" function="internal">
        <lane id=":247380551_5_0" index="0" disallow="tram rail_urban rail rail_electric ship" speed="150.89" length="7.91" shape="263.28,244.11 263.49,246.91 263.18,248.98 262.36,250.30 261.04,250.89"/>
    </edge>
    <edge id=":247380551_6" function="internal">
        <lane id=":247380551_6_0" index="0" disallow="tram rail_urban rail rail_electric ship" speed="150.89" length="6.24" shape="260.59,247.62 266.78,246.80"/>
    </edge>
    <edge id=":247380551_7" function="internal">
        <lane id=":247380551_7_0" index="0" disallow="tram rail_urban rail rail_electric ship" speed="150.89" length="3.01" shape="260.59,247.62 262.03,247.83 263.16,248.89"/>
    </edge>
    <edge id=":247380551_8" function="internal">
        <lane id=":247380551_8_0" index="0" disallow="tram rail_urban rail rail_electric ship" speed="150.89" length="2.41" shape="260.59,247.62 261.93,248.27 262.45,249.03"/>
    </edge>
    <edge id=":247380551_10" function="internal">
        <lane id=":247380551_10_0" index="0" speed="150.89" length="4.91" shape="263.16,248.89 263.98,250.81 264.49,253.59"/>
    </edge>
    <edge id=":247380551_11" function="internal">
        <lane id=":247380551_11_0" index="0" speed="150.89" length="2.41" shape="262.45,249.03 262.15,249.90 261.04,250.89"/>
    </edge>
    <edge id=":252016273_0" function="internal">
        <lane id=":252016273_0_0" index="0" disallow="tram rail_urban rail rail_electric ship" speed="150.89" length="5.11" shape="159.48,427.63 158.06,427.66 157.03,428.15 156.40,429.09 156.16,430.49"/>
    </edge>
    <edge id=":252016273_1" function="internal">
        <lane id=":252016273_1_0" index="0" disallow="tram rail_urban rail rail_electric ship" speed="150.89" length="9.56" shape="159.48,427.63 149.97,426.61"/>
    </edge>
    <edge id=":252016273_2" function="internal">
        <lane id=":252016273_2_0" index="0" disallow="tram rail_urban rail rail_electric ship" speed="150.89" length="7.00" shape="159.48,427.63 157.34,427.16 155.78,426.35 154.81,425.20 154.44,423.70"/>
    </edge>
    <edge id=":252016273_3" function="internal">
        <lane id=":252016273_3_0" index="0" disallow="tram rail_urban rail rail_electric ship" speed="150.89" length="5.35" shape="152.86,430.40 152.72,428.85 152.19,427.70 151.27,426.95 149.97,426.61"/>
    </edge>
    <edge id=":252016273_4" function="internal">
        <lane id=":252016273_4_0" index="0" disallow="tram rail_urban rail rail_electric ship" speed="150.89" length="6.95" shape="152.86,430.40 153.17,428.39 153.75,427.05 154.28,425.71 154.44,423.70"/>
    </edge>
    <edge id=":252016273_5" function="internal">
        <lane id=":252016273_5_0" index="0" disallow="tram rail_urban rail rail_electric ship" speed="150.89" length="4.82" shape="152.86,430.40 153.72,429.19 154.55,428.80 155.37,429.23 156.16,430.49"/>
    </edge>
    <edge id=":252016274_0" function="internal">
        <lane id=":252016274_0_0" index="0" disallow="tram rail_urban rail rail_electric ship" speed="150.89" length="5.06" shape="143.42,268.55 143.10,267.20 142.42,266.29 141.38,265.83 139.99,265.82"/>
    </edge>
    <edge id=":252016274_1" function="internal">
        <lane id=":252016274_1_0" index="0" disallow="tram rail_urban rail rail_electric ship" speed="150.89" length="9.58" shape="143.42,268.55 142.35,259.04"/>
    </edge>
    <edge id=":252016274_2" function="internal">
        <lane id=":252016274_2_0" index="0" disallow="tram rail_urban rail rail_electric ship" speed="150.89" length="7.90" shape="143.42,268.55 143.35,265.71 143.73,263.62 144.55,262.30 145.82,261.74"/>
    </edge>
    <edge id=":252016274_3" function="internal">
        <lane id=":252016274_3_0" index="0" disallow="tram rail_urban rail rail_electric ship" speed="150.89" length="6.27" shape="146.21,265.02 139.99,265.82"/>
    </edge>
    <edge id=":252016274_4" function="internal">
        <lane id=":252016274_4_0" index="0" disallow="tram rail_urban rail rail_electric ship" speed="150.89" length="2.92" shape="146.21,265.02 144.84,264.78 143.75,263.70"/>
    </edge>
    <edge id=":252016274_5" function="internal">
        <lane id=":252016274_5_0" index="0" disallow="tram rail_urban rail rail_electric ship" speed="150.89" length="2.41" shape="146.21,265.02 144.88,264.35 144.37,263.58"/>
    </edge>
    <edge id=":252016274_9" function="internal">
        <lane id=":252016274_9_0" index="0" speed="150.89" length="4.90" shape="143.75,263.70 142.91,261.79 142.35,259.04"/>
    </edge>
    <edge id=":252016274_10" function="internal">
        <lane id=":252016274_10_0" index="0" speed="150.89" length="2.41" shape="144.37,263.58 144.69,262.71 145.82,261.74"/>
    </edge>
    <edge id=":252016274_6" function="internal">
        <lane id=":252016274_6_0" index="0" disallow="tram rail_urban rail rail_electric ship" speed="150.89" length="5.13" shape="139.53,262.56 140.92,262.17 141.85,261.45 142.33,260.41 142.35,259.04"/>
    </edge>
    <edge id=":252016274_7" function="internal">
        <lane id=":252016274_7_0" index="0" disallow="tram rail_urban rail rail_electric ship" speed="150.89" length="6.34" shape="139.53,262.56 145.82,261.74"/>
    </edge>
    <edge id=":252016274_8" function="internal">
        <lane id=":252016274_8_0" index="0" disallow="tram rail_urban rail rail_electric ship" speed="150.89" length="2.41" shape="139.53,262.56 140.87,263.20 141.40,263.96"/>
    </edge>
    <edge id=":252016274_11" function="internal">
        <lane id=":252016274_11_0" index="0" speed="150.89" length="2.41" shape="141.40,263.96 141.10,264.84 139.99,265.82"/>
    </edge>
    <edge id=":252017285_0" function="internal">
        <lane id=":252017285_0_0" index="0" disallow="tram rail_urban rail rail_electric ship" speed="150.89" length="4.82" shape="30.41,281.08 29.06,280.45 28.53,279.69 28.82,278.81 29.92,277.81"/>
    </edge>
    <edge id=":256190118_0" function="internal">
        <lane id=":256190118_0_0" index="0" disallow="tram rail_urban rail rail_electric ship" speed="150.89" length="5.05" shape="340.77,243.65 340.46,242.29 339.78,241.38 338.75,240.92 337.36,240.90"/>
    </edge>
    <edge id=":256190118_1" function="internal">
        <lane id=":256190118_1_0" index="0" disallow="tram rail_urban rail rail_electric ship" speed="150.89" length="7.98" shape="340.77,243.65 340.73,240.81 341.14,238.72 342.00,237.40 343.33,236.85"/>
    </edge>
    <edge id=":256190118_2" function="internal">
        <lane id=":256190118_2_0" index="0" disallow="tram rail_urban rail rail_electric ship" speed="150.89" length="6.39" shape="343.70,240.13 337.36,240.90"/>
    </edge>
    <edge id=":256190118_3" function="internal">
        <lane id=":256190118_3_0" index="0" disallow="tram rail_urban rail rail_electric ship" speed="150.89" length="2.41" shape="343.70,240.13 342.38,239.45 341.87,238.67"/>
    </edge>
    <edge id=":256190118_8" function="internal">
        <lane id=":256190118_8_0" index="0" speed="150.89" length="2.41" shape="341.87,238.67 342.19,237.81 343.33,236.85"/>
    </edge>
    <edge id=":256190118_4" function="internal">
        <lane id=":256190118_4_0" index="0" disallow="tram rail_urban rail rail_electric ship" speed="150.89" length="5.03" shape="339.93,234.08 340.25,235.42 340.92,236.33 341.95,236.81 343.33,236.85"/>
    </edge>
    <edge id=":256190118_5" function="internal">
        <lane id=":256190118_5_0" index="0" disallow="tram rail_urban rail rail_electric ship" speed="150.89" length="8.01" shape="339.93,234.08 339.99,236.91 339.58,238.99 338.70,240.32 337.36,240.90"/>
    </edge>
    <edge id=":256190118_6" function="internal">
        <lane id=":256190118_6_0" index="0" disallow="tram rail_urban rail rail_electric ship" speed="150.89" length="6.45" shape="336.93,237.63 343.33,236.85"/>
    </edge>
    <edge id=":256190118_7" function="internal">
        <lane id=":256190118_7_0" index="0" disallow="tram rail_urban rail rail_electric ship" speed="150.89" length="2.41" shape="336.93,237.63 338.26,238.29 338.78,239.05"/>
    </edge>
    <edge id=":256190118_9" function="internal">
        <lane id=":256190118_9_0" index="0" speed="150.89" length="2.41" shape="338.78,239.05 338.48,239.92 337.36,240.90"/>
    </edge>
    <edge id=":256190139_0" function="internal">
        <lane id=":256190139_0_0" index="0" disallow="tram rail_urban rail rail_electric ship" speed="150.89" length="5.17" shape="429.52,442.99 429.15,441.73 428.42,440.83 427.33,440.29 425.87,440.10"/>
    </edge>
    <edge id=":256190139_1" function="internal">
        <lane id=":256190139_1_0" index="0" disallow="tram rail_urban rail rail_electric ship" speed="150.89" length="6.20" shape="429.52,442.99 428.80,436.84"/>
    </edge>
    <edge id=":256190139_2" function="internal">
        <lane id=":256190139_2_0" index="0" disallow="tram rail_urban rail rail_electric ship" speed="150.89" length="2.41" shape="429.52,442.99 430.18,441.66 430.95,441.15"/>
    </edge>
    <edge id=":256190139_6" function="internal">
        <lane id=":256190139_6_0" index="0" speed="150.89" length="2.41" shape="430.95,441.15 431.82,441.46 432.79,442.58"/>
    </edge>
    <edge id=":256190139_3" function="internal">
        <lane id=":256190139_3_0" index="0" disallow="tram rail_urban rail rail_electric ship" speed="150.89" length="6.14" shape="432.08,436.48 432.79,442.58"/>
    </edge>
    <edge id=":256190139_4" function="internal">
        <lane id=":256190139_4_0" index="0" disallow="tram rail_urban rail rail_electric ship" speed="150.89" length="3.20" shape="432.08,436.48 431.84,438.07 430.72,439.20"/>
    </edge>
    <edge id=":256190139_5" function="internal">
        <lane id=":256190139_5_0" index="0" disallow="tram rail_urban rail rail_electric ship" speed="150.89" length="2.41" shape="432.08,436.48 431.39,437.80 430.62,438.30"/>
    </edge>
    <edge id=":256190139_7" function="internal">
        <lane id=":256190139_7_0" index="0" speed="150.89" length="4.98" shape="430.72,439.20 428.73,439.88 425.87,440.10"/>
    </edge>
    <edge id=":256190139_8" function="internal">
        <lane id=":256190139_8_0" index="0" speed="150.89" length="2.41" shape="430.62,438.30 429.75,437.98 428.80,436.84"/>
    </edge>
    <edge id=":256190156_0" function="internal">
        <lane id=":256190156_0_0" index="0" disallow="tram rail_urban rail rail_electric ship" speed="150.89" length="6.22" shape="360.40,439.94 354.18,439.91"/>
    </edge>
    <edge id=":256190156_1" function="internal">
        <lane id=":256190156_1_0" index="0" disallow="tram rail_urban rail rail_electric ship" speed="150.89" length="5.14" shape="360.40,439.94 359.09,439.73 358.11,439.12 357.47,438.11 357.16,436.69"/>
    </edge>
    <edge id=":256201389_0" function="internal">
        <lane id=":256201389_0_0" index="0" disallow="tram rail_urban rail rail_electric ship" speed="150.89" length="4.82" shape="735.28,301.73 736.67,302.24 737.27,302.94 737.06,303.84 736.05,304.93"/>
    </edge>
    <edge id=":258346772_0" function="internal">
        <lane id=":258346772_0_0" index="0" disallow="tram rail_urban rail rail_electric ship" speed="150.89" length="4.82" shape="159.78,624.52 159.11,625.85 158.34,626.36 157.47,626.05 156.50,624.92"/>
    </edge>
    <edge id=":258346773_0" function="internal">
        <lane id=":258346773_0_0" index="0" disallow="tram rail_urban rail rail_electric ship" speed="150.89" length="9.26" shape="149.82,535.41 149.79,526.14"/>
    </edge>
    <edge id=":258346773_1" function="internal">
        <lane id=":258346773_1_0" index="0" disallow="tram rail_urban rail rail_electric ship" speed="150.89" length="10.39" shape="149.82,535.41 150.18,532.61 151.37,530.59 153.38,529.36 156.21,528.91"/>
    </edge>
    <edge id=":258346773_2" function="internal">
        <lane id=":258346773_2_0" index="0" disallow="tram rail_urban rail rail_electric ship" speed="150.89" length="4.82" shape="149.82,535.41 150.63,534.16 151.44,533.73 152.28,534.13 153.12,535.36"/>
    </edge>
    <edge id=":258346773_3" function="internal">
        <lane id=":258346773_3_0" index="0" disallow="tram rail_urban rail rail_electric ship" speed="150.89" length="5.08" shape="156.27,532.21 154.87,532.42 153.88,533.02 153.30,534.00 153.12,535.36"/>
    </edge>
    <edge id=":258346773_4" function="internal">
        <lane id=":258346773_4_0" index="0" disallow="tram rail_urban rail rail_electric ship" speed="150.89" length="10.18" shape="156.27,532.21 153.41,531.87 151.38,530.75 150.17,528.84 149.79,526.14"/>
    </edge>
    <edge id=":258346773_5" function="internal">
        <lane id=":258346773_5_0" index="0" disallow="tram rail_urban rail rail_electric ship" speed="150.89" length="4.82" shape="156.27,532.21 155.02,531.40 154.59,530.59 154.99,529.75 156.21,528.91"/>
    </edge>
    <edge id=":258346773_6" function="internal">
        <lane id=":258346773_6_0" index="0" disallow="tram rail_urban rail rail_electric ship" speed="150.89" length="4.75" shape="153.09,526.17 153.27,527.39 153.86,528.25 154.83,528.76 156.21,528.91"/>
    </edge>
    <edge id=":258346773_7" function="internal">
        <lane id=":258346773_7_0" index="0" disallow="tram rail_urban rail rail_electric ship" speed="150.89" length="9.18" shape="153.09,526.17 153.12,535.36"/>
    </edge>
    <edge id=":258346773_8" function="internal">
        <lane id=":258346773_8_0" index="0" disallow="tram rail_urban rail rail_electric ship" speed="150.89" length="4.82" shape="153.09,526.17 152.25,527.40 151.42,527.81 150.60,527.39 149.79,526.14"/>
    </edge>
    <edge id=":258346773_9" function="internal">
        <lane id=":258346773_9_0" index="0" disallow="tram rail_urban rail rail_electric ship" speed="150.89" length="6.33" shape="146.61,530.83 147.99,530.49 148.97,529.60 149.57,528.15 149.79,526.14"/>
    </edge>
    <edge id=":258346773_10" function="internal">
        <lane id=":258346773_10_0" index="0" disallow="tram rail_urban rail rail_electric ship" speed="150.89" length="9.83" shape="146.61,530.83 149.49,530.46 151.41,529.83 153.33,529.22 156.21,528.91"/>
    </edge>
    <edge id=":258346773_11" function="internal">
        <lane id=":258346773_11_0" index="0" disallow="tram rail_urban rail rail_electric ship" speed="150.89" length="9.03" shape="146.61,530.83 149.43,531.02 151.46,531.84 152.69,533.28 153.12,535.36"/>
    </edge>
    <edge id=":258346776_0" function="internal">
        <lane id=":258346776_0_0" index="0" disallow="tram rail_urban rail rail_electric ship" speed="150.89" length="5.07" shape="219.57,534.12 219.34,532.78 218.71,531.82 217.70,531.26 216.31,531.10"/>
    </edge>
    <edge id=":258346776_1" function="internal">
        <lane id=":258346776_1_0" index="0" disallow="tram rail_urban rail rail_electric ship" speed="150.89" length="9.52" shape="219.57,534.12 219.26,524.61"/>
    </edge>
    <edge id=":258346776_2" function="internal">
        <lane id=":258346776_2_0" index="0" disallow="tram rail_urban rail rail_electric ship" speed="150.89" length="4.82" shape="219.57,534.12 220.36,532.86 221.18,532.42 222.01,532.81 222.87,534.03"/>
    </edge>
    <edge id=":258346776_3" function="internal">
        <lane id=":258346776_3_0" index="0" disallow="tram rail_urban rail rail_electric ship" speed="150.89" length="9.55" shape="222.55,524.48 222.87,534.03"/>
    </edge>
    <edge id=":258346776_4" function="internal">
        <lane id=":258346776_4_0" index="0" disallow="tram rail_urban rail rail_electric ship" speed="150.89" length="10.42" shape="222.55,524.48 222.26,527.33 221.12,529.38 219.13,530.64 216.31,531.10"/>
    </edge>
    <edge id=":258346776_5" function="internal">
        <lane id=":258346776_5_0" index="0" disallow="tram rail_urban rail rail_electric ship" speed="150.89" length="4.82" shape="222.55,524.48 221.78,525.75 220.97,526.20 220.13,525.81 219.26,524.61"/>
    </edge>
    <edge id=":258346776_6" function="internal">
        <lane id=":258346776_6_0" index="0" disallow="tram rail_urban rail rail_electric ship" speed="150.89" length="5.02" shape="216.25,527.80 217.61,527.58 218.56,526.97 219.11,525.98 219.26,524.61"/>
    </edge>
    <edge id=":258346776_7" function="internal">
        <lane id=":258346776_7_0" index="0" disallow="tram rail_urban rail rail_electric ship" speed="150.89" length="10.35" shape="216.25,527.80 219.08,528.14 221.13,529.29 222.39,531.26 222.87,534.03"/>
    </edge>
    <edge id=":258346776_8" function="internal">
        <lane id=":258346776_8_0" index="0" disallow="tram rail_urban rail rail_electric ship" speed="150.89" length="4.82" shape="216.25,527.80 217.50,528.60 217.93,529.42 217.53,530.25 216.31,531.10"/>
    </edge>
    <edge id=":258347996_0" function="internal">
        <lane id=":258347996_0_0" index="0" disallow="tram rail_urban rail rail_electric ship" speed="150.89" length="6.22" shape="436.79,500.58 436.02,494.41"/>
    </edge>
    <edge id=":258347996_1" function="internal">
        <lane id=":258347996_1_0" index="0" disallow="tram rail_urban rail rail_electric ship" speed="150.89" length="2.41" shape="436.79,500.58 437.46,499.25 438.23,498.74"/>
    </edge>
    <edge id=":258347996_6" function="internal">
        <lane id=":258347996_6_0" index="0" speed="150.89" length="2.41" shape="438.23,498.74 439.10,499.05 440.07,500.18"/>
    </edge>
    <edge id=":258347996_2" function="internal">
        <lane id=":258347996_2_0" index="0" disallow="tram rail_urban rail rail_electric ship" speed="150.89" length="6.23" shape="439.29,493.99 440.07,500.18"/>
    </edge>
    <edge id=":258347996_3" function="internal">
        <lane id=":258347996_3_0" index="0" disallow="tram rail_urban rail rail_electric ship" speed="150.89" length="2.41" shape="439.29,493.99 438.63,495.33 437.86,495.84"/>
    </edge>
    <edge id=":258347996_7" function="internal">
        <lane id=":258347996_7_0" index="0" speed="150.89" length="2.41" shape="437.86,495.84 436.99,495.53 436.02,494.41"/>
    </edge>
    <edge id=":258347996_4" function="internal">
        <lane id=":258347996_4_0" index="0" disallow="tram rail_urban rail rail_electric ship" speed="150.89" length="5.14" shape="433.14,497.72 434.55,497.49 435.51,496.87 435.99,495.84 436.02,494.41"/>
    </edge>
    <edge id=":258347996_5" function="internal">
        <lane id=":258347996_5_0" index="0" disallow="tram rail_urban rail rail_electric ship" speed="150.89" length="7.87" shape="433.14,497.72 436.05,497.84 438.18,498.29 439.52,499.07 440.07,500.18"/>
    </edge>
    <edge id=":258347997_0" function="internal">
        <lane id=":258347997_0_0" index="0" disallow="tram rail_urban rail rail_electric ship" speed="150.89" length="5.07" shape="153.47,498.42 153.61,499.82 154.17,500.80 155.15,501.39 156.53,501.56"/>
    </edge>
    <edge id=":258347997_1" function="internal">
        <lane id=":258347997_1_0" index="0" disallow="tram rail_urban rail rail_electric ship" speed="150.89" length="6.24" shape="153.47,498.42 153.30,504.67"/>
    </edge>
    <edge id=":258347997_2" function="internal">
        <lane id=":258347997_2_0" index="0" disallow="tram rail_urban rail rail_electric ship" speed="150.89" length="4.82" shape="153.47,498.42 152.60,499.63 151.76,500.01 150.95,499.56 150.17,498.29"/>
    </edge>
    <edge id=":258347997_3" function="internal">
        <lane id=":258347997_3_0" index="0" disallow="tram rail_urban rail rail_electric ship" speed="150.89" length="6.33" shape="150.00,504.62 150.17,498.29"/>
    </edge>
    <edge id=":258347997_4" function="internal">
        <lane id=":258347997_4_0" index="0" disallow="tram rail_urban rail rail_electric ship" speed="150.89" length="7.89" shape="150.00,504.62 150.42,503.32 151.65,502.38 153.69,501.79 156.53,501.56"/>
    </edge>
    <edge id=":258347997_5" function="internal">
        <lane id=":258347997_5_0" index="0" disallow="tram rail_urban rail rail_electric ship" speed="150.89" length="4.82" shape="150.00,504.62 150.84,503.39 151.67,502.99 152.49,503.42 153.30,504.67"/>
    </edge>
    <edge id=":258347999_0" function="internal">
        <lane id=":258347999_0_0" index="0" disallow="tram rail_urban rail rail_electric ship" speed="150.89" length="4.82" shape="224.46,589.77 223.68,591.03 222.86,591.47 222.03,591.08 221.17,589.87"/>
    </edge>
    <edge id=":258348002_0" function="internal">
        <lane id=":258348002_0_0" index="0" disallow="tram rail_urban rail rail_electric ship" speed="150.89" length="7.91" shape="218.46,503.87 218.81,502.46 219.98,501.44 221.97,500.81 224.78,500.56"/>
    </edge>
    <edge id=":258348002_1" function="internal">
        <lane id=":258348002_1_0" index="0" disallow="tram rail_urban rail rail_electric ship" speed="150.89" length="4.82" shape="218.46,503.87 219.24,502.60 220.05,502.16 220.89,502.54 221.76,503.74"/>
    </edge>
    <edge id=":258348002_2" function="internal">
        <lane id=":258348002_2_0" index="0" disallow="tram rail_urban rail rail_electric ship" speed="150.89" length="9.50" shape="215.28,500.70 224.78,500.56"/>
    </edge>
    <edge id=":258348002_3" function="internal">