<configuration>
    <input>
        <net-file value="colonia.net.xml"/>
        <route-files value="colonia.rou.xml"/>
        <gui-settings-file value="sumo.settings.xml"/>
        <additional-files value="colonia.poi.xml"/>
    </input>

    <time>
        <begin value="0"/>
        <end value="180"/>
        <step-length value="0.1"/>
    </time>

    <gui_only>
        <start value="true"/>
    </gui_only>
</configuration>
